ArcFiles.txt
Archive.bat
ChangeLog.txt
Disclaimer.txt
Samples/LES.fdp
Samples/SampleInflowWindInput.hwc
Samples/Steady.wnd
Samples/Turb.sum
Samples/Turb.wnd
Samples/TurbSim_AD.ctp
Samples/FORMAT_FF_Sum_File.pdf
Source/CTWind.f90
Source/FDWind.f90
Source/FFWind.f90
Source/HAWCWind.f90
Source/HHWind.f90
Source/InflowWindMod.f90
Source/SharedInflowDefs.f90
Source/UserWind.f90
Source/InflowWind_Make.txt
TestRoutines/Fortran/ReadMe.txt
TestRoutines/Fortran/InflowWind_Test.f90
TestRoutines/Matlab/intelf12msvs2010shellopts.bat
TestRoutines/Matlab/make_InflowWind_mexFunc.m
TestRoutines/Matlab/InflowWind_gateway.f90
TestRoutines/Matlab/Test_InflowWind_mexFunc.m


